LTspice 24.1.3 for Windows
Circuit: C:\Users\alvar\Desktop\MPOWER\Maquinas Electricas y Alta Tension\TrabajoAltaTension\Multiplicador.net
Start Time: Thu Feb 20 17:40:05 2025
solver = Normal
Maximum thread count: 16
tnom = 27
temp = 27
method = trap
C:\Users\alvar\Desktop\MPOWER\Maquinas Electricas y Alta Tension\TrabajoAltaTension\Multiplicador.net(29): Limiting rise time to 0.001.

V2 Vin 0 PULSE({Vneg} {V} 0 0 0 0.01 0.02)
^^^^^^^^^^^^^^^^^^^^^^^^^^^^^^^^^^^^^^^^^^
C:\Users\alvar\Desktop\MPOWER\Maquinas Electricas y Alta Tension\TrabajoAltaTension\Multiplicador.net(29): Limiting fall time to 0.001.

V2 Vin 0 PULSE({Vneg} {V} 0 0 0 0.01 0.02)
^^^^^^^^^^^^^^^^^^^^^^^^^^^^^^^^^^^^^^^^^^
WARNING: Node nc_02 is floating.

Direct Newton iteration for .op point succeeded.
Total elapsed time: 1.134 seconds.

Files loaded:
C:\Users\alvar\Desktop\MPOWER\Maquinas Electricas y Alta Tension\TrabajoAltaTension\Multiplicador.net
C:\Users\alvar\AppData\Local\LTspice\lib\cmp\standard.dio

