Circuit: * E:\MÁSTER MPOWER\ASIGNATURAS\Máquinas Eléctricas\Alta Tensión\Trabajo\3kV-Voltage-Multiplier\Multiplicador.asc

.OP point found by inspection.

Date: Wed Feb 19 13:13:31 2025
Total elapsed time: 1.418 seconds.

tnom = 27
temp = 27
method = modified trap
totiter = 609790
traniter = 609790
tranpoints = 116084
accept = 79866
rejected = 36218
matrix size = 15
fillins = 0
solver = Normal
Matrix Compiler1: 1.29 KB object code size  0.2/0.2/[0.2]
Matrix Compiler2: 1.28 KB object code size  0.2/0.1/[0.1]

