LTspice 24.1.3 for Windows
Circuit: C:\Users\alvar\Desktop\MPOWER\Maquinas Electricas y Alta Tension\TrabajoAltaTension\Multiplicador.net
Start Time: Thu Feb 20 13:54:08 2025
solver = Normal
Maximum thread count: 16
tnom = 27
temp = 27
method = trap
.OP point found by inspection.
Total elapsed time: 0.411 seconds.

Files loaded:
C:\Users\alvar\Desktop\MPOWER\Maquinas Electricas y Alta Tension\TrabajoAltaTension\Multiplicador.net
C:\Users\alvar\AppData\Local\LTspice\lib\cmp\standard.dio

