Circuit: * E:\MÁSTER MPOWER\ASIGNATURAS\Máquinas Eléctricas\Alta Tensión\Trabajo\3kV-Voltage-Multiplier\Multiplicador.asc

Limiting rise time of source v2 to 0.001
Limiting fall time of source v2 to 0.001
WARNING: Node NC_02 is floating.

WARNING: Less than two connections to node NC_01.  This node is used by V2.
WARNING: Less than two connections to node NC_02.  This node is used by V2.
Direct Newton iteration for .op point succeeded.

Date: Thu Feb 20 19:51:44 2025
Total elapsed time: 0.965 seconds.

tnom = 27
temp = 27
method = modified trap
totiter = 139535
traniter = 139522
tranpoints = 29874
accept = 23074
rejected = 6800
matrix size = 18
fillins = 0
solver = Normal
Matrix Compiler1: 1.37 KB object code size  0.3/0.2/[0.2]
Matrix Compiler2: 1.42 KB object code size  0.2/0.2/[0.2]

