Circuit: * E:\MÁSTER MPOWER\ASIGNATURAS\Máquinas Eléctricas\Alta Tensión\Trabajo\3kV-Voltage-Multiplier\Multiplicador.asc

.OP point found by inspection.

Date: Wed Feb 19 12:05:24 2025
Total elapsed time: 0.547 seconds.

tnom = 27
temp = 27
method = modified trap
totiter = 200896
traniter = 200896
tranpoints = 35201
accept = 25823
rejected = 9378
matrix size = 13
fillins = 0
solver = Normal
Matrix Compiler1: 1.20 KB object code size  0.2/0.1/[0.1]
Matrix Compiler2: off  [0.1]/0.1/0.1

